*KEYWORD
$
$ File created by cubit version 2021.11
$...>....1....>....2....>....3....>....4....>....5....>....6....>....7....>....8
*TITLE
$ cubit(C:/Users/Kukushkin/Desktop/task_mesh_homo.k): 08/11/2022: 16:00:04
*PART
Block 3
$    pid     sid     mid   eosid    hgid    grav  adpopt    tmid
       3       3     100       0       0       0       0     100
*SECTION_SHELL
       3
$     t1      t2      t3      t4
       1       1       1       1

*MAT_ELASTIC
     100   7e-06  206800    0.29     0.0     0.0       0
*MAT_THERMAL_ISOTROPIC
     100     0.0     0.0     0.0     0.0     0.0
     500   0.045
*NODE
$    nid               x               y               z      tc      rc
       2               0               0               0       0       0
       9       0.0186733               0               0       0       0
      39               0       0.0190574               0       0       0
      11            0.15       0.0183562               0       0       0
      12            0.15       0.0374143               0       0       0
      46         0.13498       0.0304757               0       0       0
      40        0.125124       0.0165945               0       0       0
      71        0.117651       0.0335647               0       0       0
       3        0.131384               0               0       0       0
      41        0.105054       0.0171838               0       0       0
       4        0.112667               0               0       0       0
       5       0.0938695               0               0       0       0
      75        0.111982       0.0555741               0       0       0
      76        0.117937       0.0752173               0       0       0
      96        0.099849        0.075822               0       0       0
      36               0       0.0849544               0       0       0
      67       0.0244195       0.0973132               0       0       0
      35               0         0.11107               0       0       0
     101       0.0586858        0.200838               0       0       0
      87       0.0407362        0.188994               0       0       0
$ ... 84 like lines cut
$
$...>....1....>....2....>....3....>....4....>....5....>....6....>....7....>....8
$    eid     pid      n1      n2      n3      n4      n5      n6      n7      n8
*ELEMENT_SHELL
       1       3       2       9      39      39
       2       3      11      12      46      46
       3       3      40      46      71      71
       4       3       3      11      40      40
       5       3      40      41       4       4
       6       3      41       5       4       4
       7       3      75      76      96      96
       8       3      36      67      35      35
       9       3     101      87     104     104
      10       3       1      11       3       3
      11       3      47      71      46      46
      12       3      93      96     103     103
      13       3      90     102      98      98
      14       3      35      66      34      34
      15       3      31      62      30      30
      16       3      32      63      31      31
      17       3      33      64      32      32
      18       3      56      82      55      55
      19       3      24      56      23      23
      20       3      25      57      24      24
$ ... 147 like lines cut
*END
