*KEYWORD
$
$ File created by cubit version 2021.11
$...>....1....>....2....>....3....>....4....>....5....>....6....>....7....>....8
*TITLE
$ cubit(task_mesh_coarse.k): 07/19/2022: 09:59:48
*PART
Block 4
$    pid     sid     mid   eosid    hgid    grav  adpopt    tmid
       4       4     100       0       0       0       0     100
*SECTION_SHELL
       4
$     t1      t2      t3      t4
       1       1       1       1

*MAT_ELASTIC
     100       0    2e11     0.3     0.0     0.0       0
*MAT_THERMAL_ISOTROPIC
     100     0.0     0.0     0.0     0.0     0.0
     500   0.045
*NODE
$    nid               x               y               z      tc      rc
      17         0.07674       0.0351518               0       0       0
       8       0.0986088               0               0       0       0
      18        0.114063       0.0395656               0       0       0
       1            0.15               0               0       0       0
      19       0.0454784       0.0263846               0       0       0
       2            0.03               0               0       0       0
       9       0.0597304               0               0       0       0
       3            0.15            0.25               0       0       0
      20       0.0982067          0.2092               0       0       0
      12            0.15        0.186547               0       0       0
      21       0.0980439        0.148638               0       0       0
      11            0.15        0.123094               0       0       0
       4               0            0.25               0       0       0
      22        0.042271        0.206638               0       0       0
       6           0.075            0.25               0       0       0
      23       0.0989959       0.0887846               0       0       0
      10            0.15       0.0601873               0       0       0
      25       0.0461119        0.109325               0       0       0
      24       0.0508053        0.157984               0       0       0
      28       0.0604836       0.0676566               0       0       0
$ ... 8 like lines cut
$
$...>....1....>....2....>....3....>....4....>....5....>....6....>....7....>....8
$    eid     pid      n1      n2      n3      n4      n5      n6      n7      n8
*ELEMENT_SHELL
       1       4      17       8      18      18
       2       4      18       8       1       1
       3       4      19       2       9       9
       4       4      19       9      17      17
       5       4       3      20      12      12
       6       4      21      11      12      12
       7       4       4      22       6       6
       8       4      22      20       6       6
       9       4      23      10      11      11
      10       4      21      12      20      20
      11       4      25      21      24      24
      12       4      19      17      28      28
      13       4       5      27      16      16
      14       4      17       9       8       8
      15       4      28      23      25      25
      16       4      26      16      27      27
      17       4      18       1      10      10
      18       4      17      23      28      28
      19       4      19       7       2       2
      20       4      26      15      16      16
$ ... 18 like lines cut
*END
