*KEYWORD
*TITLE
*PART
Test
       1       2     100       0       0       0       0       0
*SECTION_SHELL
       2
       1       1       1       1
*MAT_ELASTIC
     100       0    2e11     0.29     0.0     0.0       0
*NODE
$    nid               x               y               z      tc      rc
	1		0.		0.25		0.0	0	0
	16		0.075		0.25		0.0	0	0
	31		0.15		0.25		0.0	0	0
	56		0.15		0.125		0.0	0	0
	81		0.15		0.0		0.0	0	0
	93		0.09		0.0		0.0	0	0
	105		0.03		0.0		0.0	0	0
	114		0.0		0.03		0.0	0	0
	1605		0.15		0.1875		0.0	0	0
	1606		0.15		0.0625		0.0	0	0
	1607		0.0212132	0.0212132	0.0	0	0
	1608		0.0		0.103333	0.0	0	0
	1609		0.0		0.176667	0.0	0	0
	1610		0.102187	0.15736		0.0	0	0
	1611		0.101709	0.0953794	0.0	0	0
	1612		0.0513631	0.130517	0.0	0	0
	1613		0.0555274	0.195715	0.0	0	0
	1614		0.0501551	0.0529982	0.0	0	0
	1615		0.106377	0.208297	0.0	0	0
	1616		0.108259	0.0423242	0.0	0	0
*ELEMENT_SHELL
	1	1	1616	81	1606	1606
	2	1	1615	1613	1610	1610
	3	1	56	1611	1606	1606
	4	1	1615	31	16	16
	5	1	1612	1609	1608	1608
	6	1	1611	56	1610	1610
	7	1	93	1616	1614	1614
	8	1	1614	105	93	93
	9	1	81	1616	93	93
	10	1	1614	114	1607	1607
	11	1	16	1	1613	1613
	12	1	56	1605	1610	1610
	13	1	1613	1615	16	16
	14	1	1613	1612	1610	1610
	15	1	105	1614	1607	1607
	16	1	1614	1612	1608	1608
	17	1	1611	1610	1612	1612
	18	1	1	1609	1613	1613
	19	1	1612	1613	1609	1609
	20	1	1612	1614	1611	1611
$ ... 5 like lines cut
*END
