*KEYWORD
$
$ File created by cubit version 2021.11
$...>....1....>....2....>....3....>....4....>....5....>....6....>....7....>....8
*TITLE
$ cubit(C:/Users/Kukushkin/Desktop/task_mesh_fine.k): 08/11/2022: 17:37:46
*PART
Block 4
$    pid     sid     mid   eosid    hgid    grav  adpopt    tmid
       4       4     100       0       0       0       0     100
*SECTION_SHELL
       4
$     t1      t2      t3      t4
       1       1       1       1

*MAT_ELASTIC
     100   7e-06  206800    0.29     0.0     0.0       0
*MAT_THERMAL_ISOTROPIC
     100     0.0     0.0     0.0     0.0     0.0
     500   0.045
*NODE
$    nid               x               y               z      tc      rc
      34        0.109964               0               0       0       0
      33        0.119973               0               0       0       0
     111        0.115067      0.00865199               0       0       0
      41       0.0399002               0               0       0       0
      40       0.0499093               0               0       0       0
     118       0.0455397      0.00874934               0       0       0
      36       0.0899456               0               0       0       0
      35       0.0999546               0               0       0       0
     113       0.0949903       0.0086645               0       0       0
      43            0.15            0.01               0       0       0
      44            0.15            0.02               0       0       0
     119        0.141779       0.0145417               0       0       0
     179        0.143394      0.00650759               0       0       0
      31        0.139991               0               0       0       0
      29            0.15               0               0       0       0
     109        0.135202      0.00799629               0       0       0
     110        0.125245      0.00869282               0       0       0
      32        0.129982               0               0       0       0
      49            0.15            0.07               0       0       0
     124        0.141332       0.0650163               0       0       0
$ ... 447 like lines cut
$
$...>....1....>....2....>....3....>....4....>....5....>....6....>....7....>....8
$    eid     pid      n1      n2      n3      n4      n5      n6      n7      n8
*ELEMENT_SHELL
       1       4      34      33     111     111
       2       4      41      40     118     118
       3       4      36      35     113     113
       4       4      43      44     119     119
       5       4      43     119     179     179
       6       4      31      29     179     179
       7       4     109     110      32      32
       8       4     110      33      32      32
       9       4      49     124      48      48
      10       4     111     112      34      34
      11       4     238     239     296     296
      12       4     113     114      36      36
      13       4     106     176     105     105
      14       4     116      39      38      38
      15       4      29      43     179     179
      16       4      47      48     123     123
      17       4     186     187     112     112
      18       4      35     112     113     113
      19       4     187     188     113     113
      20       4     169     168      97      97
$ ... 832 like lines cut
*END
