*KEYWORD
$
$ File created by cubit version 2021.11
$...>....1....>....2....>....3....>....4....>....5....>....6....>....7....>....8
*TITLE
$ cubit(C:/Users/Kukushkin/Desktop/task_mesh_fine.k): 07/19/2022: 09:59:48
*PART
Block 4
$    pid     sid     mid   eosid    hgid    grav  adpopt    tmid
       4       4     100       0       0       0       0     100
*SECTION_SHELL
       4
$     t1      t2      t3      t4
       1       1       1       1

*MAT_ELASTIC
     100       0    2e11     0.3     0.0     0.0       0
*MAT_THERMAL_ISOTROPIC
     100     0.0     0.0     0.0     0.0     0.0
     500   0.045
*NODE
$    nid               x               y               z      tc      rc
      79        0.132449       0.0509661               0       0       0
     105        0.114653       0.0369606               0       0       0
      78        0.134231        0.033546               0       0       0
     112        0.110866        0.104058               0       0       0
     113        0.108261         0.12781               0       0       0
     136       0.0896132        0.111805               0       0       0
      39            0.15       0.0208793               0       0       0
      72        0.124218       0.0179507               0       0       0
      31        0.130075               0               0       0       0
      40            0.15       0.0412907               0       0       0
      73        0.104645       0.0167091               0       0       0
      32        0.111854               0               0       0       0
      33       0.0951824               0               0       0       0
     106       0.0945127        0.031166               0       0       0
     107       0.0786703       0.0273804               0       0       0
      74       0.0875864       0.0146556               0       0       0
      99      0.00826725       0.0440673               0       0       0
      98      0.00944933       0.0538634               0       0       0
      64               0       0.0485624               0       0       0
      29            0.15               0               0       0       0
$ ... 123 like lines cut
$
$...>....1....>....2....>....3....>....4....>....5....>....6....>....7....>....8
$    eid     pid      n1      n2      n3      n4      n5      n6      n7      n8
*ELEMENT_SHELL
       1       4      79     105      78      78
       2       4     112     113     136     136
       3       4      39      72      31      31
       4       4      39      40      78      78
       5       4      72      73      32      32
       6       4      73      33      32      32
       7       4     106     107      74      74
       8       4      99      98      64      64
       9       4      29      39      31      31
      10       4     106      74      73      73
      11       4      61      62      96      96
      12       4     156     141     155     155
      13       4      85     115      84      84
      14       4      56      57      91      91
      15       4      55      89      54      54
      16       4     118      90     119     119
      17       4      50      86      49      49
      18       4      38      49     103     103
      19       4      51      87      50      50
      20       4      86     115      85      85
$ ... 223 like lines cut
*END
